48

Fe      0.0000000000    0.0000000000    2.8750600000
S      -0.2853700000    1.7122800000    1.5121000000
N       1.4358600000    0.2819500000    4.3159600000
C       1.1687000000    0.7003500000    5.5520900000
C      -0.1195900000    0.7963000000    6.0842000000
H      -0.1778000000    1.1728400000    7.0958500000
C      -1.3204400000    0.3096600000    5.5569700000
N      -1.4611700000   -0.1557400000    4.3177000000
C      -2.7149600000   -0.7530600000    3.9720600000
C       2.8037700000    0.0539600000    3.9694900000
C       2.2788500000    1.0816800000    6.5058200000
H       2.9024500000    0.2126400000    6.7405400000
H       1.8644100000    1.4761800000    7.4308000000
H       2.9400200000    1.8315800000    6.0624600000
C      -2.4792900000    0.3172600000    6.5288000000
H      -3.3384400000    0.8538900000    6.1148600000
H      -2.1880900000    0.7845300000    7.4665400000
H      -2.8172400000   -0.7038600000    6.7327400000
Fe      0.0000000000    0.0000000000    0.0000000000
S       0.3217700000   -1.7003700000    1.5135300000
N      -1.4370900000   -0.1962600000   -1.4845700000
C      -1.2072900000   -0.5781000000   -2.7393900000
C       0.0690900000   -0.7302400000   -3.2933800000
H       0.0962600000   -1.0549600000   -4.3250100000
C       1.3016400000   -0.3747300000   -2.7376900000
N       1.4656000000    0.0000000000   -1.4702500000
C       2.7357700000    0.5500500000   -1.1185300000
C      -2.8008600000    0.0358200000   -1.1332600000
C      -2.3533900000   -0.8545400000   -3.6901500000
H      -2.9368100000    0.0533100000   -3.8763000000
H      -1.9748600000   -1.2271200000   -4.6400800000
H      -3.0467700000   -1.5916100000   -3.2746200000
C       2.4717200000   -0.4294400000   -3.6967800000
H       3.2434900000   -1.1177000000   -3.3376700000
H       2.1424700000   -0.7509400000   -4.6829500000
H       2.9482800000    0.5515800000   -3.7921500000
H       3.2638400000   -0.7257400000    4.5897300000
H       3.4174300000    0.9576500000    4.0685300000
H       2.8617900000   -0.2710400000    2.9294200000
H      -2.6909400000   -1.0608200000    2.9248400000
H      -3.5551900000   -0.0585000000    4.0930500000
H      -2.9321900000   -1.6422200000    4.5767000000
H       2.9199100000    1.5168300000   -1.6067700000
H       3.5768100000   -0.1075100000   -1.3747200000
H       2.7706100000    0.7175200000   -0.0392000000
H      -2.8558200000    0.3488100000   -0.0878900000
H      -3.4240700000   -0.8619800000   -1.2363500000
H      -3.2672600000    0.8246300000   -1.7387300000
