48

Fe       0.000000000      0.000000000      2.820602645
S       -0.167752358      1.700934574      1.405092539
N        1.476850179      0.207365657      4.187870287
C        1.255573644      0.780792704      5.374405029
C       -0.015125892      1.072840662      5.877541193
H       -0.030974175      1.563371062      6.840300703
C       -1.249107810      0.599688454      5.425548932
N       -1.436919528      0.000633204      4.245895857
C       -2.731780301     -0.592959244      4.053571672
C        2.832061489     -0.194933152      3.933812382
C        2.405343449      1.081231974      6.305605714
H        2.903263512      0.156046031      6.611253180
H        2.046051463      1.591868111      7.195791450
H        3.159020468      1.704966710      5.815704071
C       -2.388748492      0.714382319      6.408493368
H       -3.263384903      1.190887234      5.958712851
H       -2.078882401      1.289102829      7.278658844
H       -2.699921183     -0.280723121      6.739826890
Fe       0.000000000      0.000000000      0.000000000
S        0.167903896     -1.700832600      1.415484851
N       -1.477095638     -0.208472225     -1.366698912
C       -1.255801768     -0.781268333     -2.553599326
C        0.014898248     -1.072025632     -3.057318154
H        0.030686169     -1.562437436     -4.020170472
C        1.248741302     -0.598295581     -2.605512729
N        1.436830224      0.000000000     -1.425576892
C        2.731971891      0.592642380     -1.232457368
C       -2.832092847      0.194747555     -1.113014881
C       -2.405491022     -1.081344381     -3.485019956
H       -2.883229016     -0.152667290     -3.812245409
H       -2.049461425     -1.614884228     -4.363113327
H       -3.174294216     -1.680808768     -2.989348540
C        2.387987846     -0.711903701     -3.588964454
H        3.261921963     -1.190178287     -3.139431056
H        2.077753542     -1.284699800     -4.460252361
H        2.700848689      0.283180586     -3.918599631
H        3.194414589     -0.902510668      4.687029335
H        3.515098134      0.660926443      3.913193513
H        2.885932247     -0.686411036      2.961061753
H       -2.766160773     -1.073447783      3.074783806
H       -3.532781232      0.152836656      4.086251069
H       -2.945676651     -1.355309049      4.809062038
H        2.950682451      1.348858915     -1.992797084
H        3.531228308     -0.155496739     -1.256494589
H        2.763577402      1.080186678     -0.257121010
H       -2.881853474      0.702498292     -0.148405635
H       -3.512811707     -0.662400730     -1.073945900
H       -3.200565641      0.888013197     -1.876193394
